Circuit: * C:\Users\451516\Documents\github\LTspice\aLIGORFfilters\WFS filters\36_45_LSC_v1_T1100402_no_test_signal_max4017.asc

WARNING: Less than two connections to node N15.  This node is used by V4.
WARNING: Less than two connections to node P15.  This node is used by V5.
Direct Newton iteration for .op point succeeded.



Date: Thu Aug 17 22:37:02 2023
Total elapsed time: 0.094 seconds.

tnom = 27
temp = 27
method = trap
totiter = 25
traniter = 0
tranpoints = 0
accept = 0
rejected = 0
matrix size = 164
fillins = 94
solver = Normal
Matrix Compiler1:     647 opcodes
Matrix Compiler2: 13.39 KB object code size
